New line 3.
New line.
Git is a version control system.
Git is a free software.
Add change 2

branch management.

fix for issue-101
Add one line

Change from anothre place.
